Circuit: * /Users/TylerMatthews/Dropbox/Classes/Current/Electronic Design/Audio Amplifier/Entire Designs/DifferPairWithActiveLoading.asc

Direct Newton iteration for .op point succeeded.

Date: Sat Apr 21 12:20:20 2018
Total elapsed time: 0.096 seconds.

tnom = 27
temp = 27
method = modified trap
totiter = 2112
traniter = 2101
tranpoints = 1046
accept = 1045
rejected = 1
matrix size = 39
fillins = 44
solver = Normal
Matrix Compiler1: 5658 object code size  1.1/0.7/[0.4]
Matrix Compiler2: off

